56
Properties=species:S:1:pos:R:3:initial_charges:R:1:forces:R:3:castep_custom_species:S:1:masses:R:1 energy=-142.22711452331797 name=ethyleneMu_opt pbc="F F F"
C        0.23277597      -0.00000000       0.69727665      -0.15665483       0.03325514       0.00000000       0.03920831 C       12.01100000
C       -0.07913384       0.00000000      -0.73538585      -0.28286591       0.03264532      -0.00000000       0.01286867 C       12.01100000
H       -0.15520531       0.88835739       1.20202730       0.07359524      -0.01279691      -0.00215511      -0.00129848 H        1.00800000
H       -0.15520531      -0.88835739       1.20202730       0.07359524      -0.01279691       0.00215511      -0.00129848 H        1.00800000
H       -0.08303631       0.92873166      -1.29389186       0.10320936      -0.00112412       0.00267043       0.00211906 H        1.00800000
H       -0.08303631      -0.92873166      -1.29389186       0.10320936      -0.00112412      -0.00267043       0.00211906 H        1.00800000
H        1.32284112      -0.00000000       0.88931832       0.08591154      -0.03805839      -0.00000000      -0.05371812 H:mu       0.11342893
C        0.23277597       0.00000000       0.69727665      -0.15665483       0.03325514       0.00000000       0.03920831 C       12.01100000
C       -0.07913384       0.00000000      -0.73538585      -0.28286591       0.03264532      -0.00000000       0.01286867 C       12.01100000
H       -0.15520531       0.88835739       1.20202730       0.07359524      -0.01279691      -0.00215511      -0.00129848 H        1.00800000
H       -0.15520531      -0.88835739       1.20202730       0.07359524      -0.01279691       0.00215511      -0.00129848 H        1.00800000
H       -0.08303631       0.92873166      -1.29389186       0.10320936      -0.00112412       0.00267043       0.00211906 H        1.00800000
H       -0.08303631      -0.92873166      -1.29389186       0.10320936      -0.00112412      -0.00267043       0.00211906 H        1.00800000
H        1.32284112       0.00000000       0.88931832       0.08591154      -0.03805839      -0.00000000      -0.05371812 H:mu       0.11342893
C        0.23277597       0.00000000       0.69727665      -0.15665483       0.03325514       0.00000000       0.03920831 C       12.01100000
C       -0.07913384       0.00000000      -0.73538585      -0.28286591       0.03264532      -0.00000000       0.01286867 C       12.01100000
H       -0.15520531       0.88835739       1.20202730       0.07359524      -0.01279691      -0.00215511      -0.00129848 H        1.00800000
H       -0.15520531      -0.88835739       1.20202730       0.07359524      -0.01279691       0.00215511      -0.00129848 H        1.00800000
H       -0.08303631       0.92873166      -1.29389186       0.10320936      -0.00112412       0.00267043       0.00211906 H        1.00800000
H       -0.08303631      -0.92873166      -1.29389186       0.10320936      -0.00112412      -0.00267043       0.00211906 H        1.00800000
H        1.32284112       1.37357252       0.88931832       0.08591154      -0.03805839      -0.00000000      -0.05371812 H:mu       0.11342893
C        0.23277597       0.00000000       0.69727665      -0.15665483       0.03325514       0.00000000       0.03920831 C       12.01100000
C       -0.07913384       0.00000000      -0.73538585      -0.28286591       0.03264532      -0.00000000       0.01286867 C       12.01100000
H       -0.15520531       0.88835739       1.20202730       0.07359524      -0.01279691      -0.00215511      -0.00129848 H        1.00800000
H       -0.15520531      -0.88835739       1.20202730       0.07359524      -0.01279691       0.00215511      -0.00129848 H        1.00800000
H       -0.08303631       0.92873166      -1.29389186       0.10320936      -0.00112412       0.00267043       0.00211906 H        1.00800000
H       -0.08303631      -0.92873166      -1.29389186       0.10320936      -0.00112412      -0.00267043       0.00211906 H        1.00800000
H        1.32284112      -1.37357252       0.88931832       0.08591154      -0.03805839      -0.00000000      -0.05371812 H:mu       0.11342893
C        0.23277597       0.00000000       0.69727665      -0.15665483       0.03325514       0.00000000       0.03920831 C       12.01100000
C       -0.07913384       0.00000000      -0.73538585      -0.28286591       0.03264532      -0.00000000       0.01286867 C       12.01100000
H       -0.15520531       0.88835739       1.20202730       0.07359524      -0.01279691      -0.00215511      -0.00129848 H        1.00800000
H       -0.15520531      -0.88835739       1.20202730       0.07359524      -0.01279691       0.00215511      -0.00129848 H        1.00800000
H       -0.08303631       0.92873166      -1.29389186       0.10320936      -0.00112412       0.00267043       0.00211906 H        1.00800000
H       -0.08303631      -0.92873166      -1.29389186       0.10320936      -0.00112412      -0.00267043       0.00211906 H        1.00800000
H        1.35898675       0.00000000      -0.73276534       0.08591154      -0.03805839      -0.00000000      -0.05371812 H:mu       0.11342893
C        0.23277597       0.00000000       0.69727665      -0.15665483       0.03325514       0.00000000       0.03920831 C       12.01100000
C       -0.07913384       0.00000000      -0.73538585      -0.28286591       0.03264532      -0.00000000       0.01286867 C       12.01100000
H       -0.15520531       0.88835739       1.20202730       0.07359524      -0.01279691      -0.00215511      -0.00129848 H        1.00800000
H       -0.15520531      -0.88835739       1.20202730       0.07359524      -0.01279691       0.00215511      -0.00129848 H        1.00800000
H       -0.08303631       0.92873166      -1.29389186       0.10320936      -0.00112412       0.00267043       0.00211906 H        1.00800000
H       -0.08303631      -0.92873166      -1.29389186       0.10320936      -0.00112412      -0.00267043       0.00211906 H        1.00800000
H        1.28669549      -0.00000000       2.51140198       0.08591154      -0.03805839      -0.00000000      -0.05371812 H:mu       0.11342893
C        0.23277597       0.00000000       0.69727665      -0.15665483       0.03325514       0.00000000       0.03920831 C       12.01100000
C       -0.07913384       0.00000000      -0.73538585      -0.28286591       0.03264532      -0.00000000       0.01286867 C       12.01100000
H       -0.15520531       0.88835739       1.20202730       0.07359524      -0.01279691      -0.00215511      -0.00129848 H        1.00800000
H       -0.15520531      -0.88835739       1.20202730       0.07359524      -0.01279691       0.00215511      -0.00129848 H        1.00800000
H       -0.08303631       0.92873166      -1.29389186       0.10320936      -0.00112412       0.00267043       0.00211906 H        1.00800000
H       -0.08303631      -0.92873166      -1.29389186       0.10320936      -0.00112412      -0.00267043       0.00211906 H        1.00800000
H        2.29275240       0.00000000       0.91093130       0.08591154      -0.03805839      -0.00000000      -0.05371812 H:mu       0.11342893
C        0.23277597       0.00000000       0.69727665      -0.15665483       0.03325514       0.00000000       0.03920831 C       12.01100000
C       -0.07913384       0.00000000      -0.73538585      -0.28286591       0.03264532      -0.00000000       0.01286867 C       12.01100000
H       -0.15520531       0.88835739       1.20202730       0.07359524      -0.01279691      -0.00215511      -0.00129848 H        1.00800000
H       -0.15520531      -0.88835739       1.20202730       0.07359524      -0.01279691       0.00215511      -0.00129848 H        1.00800000
H       -0.08303631       0.92873166      -1.29389186       0.10320936      -0.00112412       0.00267043       0.00211906 H        1.00800000
H       -0.08303631      -0.92873166      -1.29389186       0.10320936      -0.00112412      -0.00267043       0.00211906 H        1.00800000
H        0.35292984      -0.00000000       0.86770534       0.08591154      -0.03805839      -0.00000000      -0.05371812 H:mu       0.11342893
